/*--------------------------------*- C++ -*----------------------------------*\
| =========                 |                                                 |
| \\      /  F ield         | OpenFOAM: The Open Source CFD Toolbox           |
|  \\    /   O peration     | Version:  v2206                                 |
|   \\  /    A nd           | Website:  www.openfoam.com                      |
|    \\/     M anipulation  |                                                 |
\*---------------------------------------------------------------------------*/
FoamFile
{
    version     2.0;
    format      ascii;
    class       dictionary;
    object      blockMeshDict;
}
// * * * * * * * * * * * * * * * * * * * * * * * * * * * * * * * * * * * * * //

scale 1;

xmin -22.86;
xmax 38.1;
ymin -22.86;
ymax 38.1;
zmin 0.0;
zmax 27.432;

xcells 40;
ycells 40;
zcells 12;

vertices
(
    ($xmin  $ymin  $zmin)
    ($xmax  $ymin  $zmin)
    ($xmax  $ymax  $zmin)
    ($xmin  $ymax  $zmin)
    ($xmin  $ymin  $zmax)
    ($xmax  $ymin  $zmax)
    ($xmax  $ymax  $zmax)
    ($xmin  $ymax  $zmax)
);

blocks
(
    hex (0 1 2 3 4 5 6 7) ($xcells $ycells $zcells) simpleGrading (1 1 1)
);

edges
(
);

patches
(
    patch minX
    (
        (0 4 7 3)
    )
    patch maxX
    (
        (2 6 5 1)
    )
    patch minY
    (
        (1 5 4 0)
    )
    patch maxY
    (
        (3 7 6 2)
    )
    patch minZ
    (
        (0 3 2 1)
    )
    patch maxZ
    (
        (4 5 6 7)
    )
);

mergePatchPairs
(
);


// ************************************************************************* //
