/*--------------------------------*- C++ -*----------------------------------*\
| =========                 |                                                 |
| \\      /  F ield         | OpenFOAM: The Open Source CFD Toolbox           |
|  \\    /   O peration     | Version:  v2206                                 |
|   \\  /    A nd           | Website:  www.openfoam.com                      |
|    \\/     M anipulation  |                                                 |
\*---------------------------------------------------------------------------*/
FoamFile
{
    version     2.0;
    format      ascii;
    class       dictionary;
    object      blockMeshDict;
}
// * * * * * * * * * * * * * * * * * * * * * * * * * * * * * * * * * * * * * //

scale 1;

xmin -22.86;
xmax 38.1;
ymin -22.86;
ymax 38.1;
zmin 0.0;
zmax 27.432;

xcells 33;
ycells 33;
zcells 10;

vertices
(
    ($xmin  $ymin  $zmin)
    ($xmax  $ymin  $zmin)
    ($xmax  $ymax  $zmin)
    ($xmin  $ymax  $zmin)
    ($xmin  $ymin  $zmax)
    ($xmax  $ymin  $zmax)
    ($xmax  $ymax  $zmax)
    ($xmin  $ymax  $zmax)
);

blocks
(
    hex (0 1 2 3 4 5 6 7) ($xcells $ycells $zcells) simpleGrading (1 1 1)
);

edges
(
);
 
boundary
(
    floor
    {
        type wall;
        faces
        (
            ( 0 1 2 3 )
        );
    }
    ceiling
    {
        type wall;
        faces
        (
            ( 4 5 6 7 )
        );
    }
    fixedWalls
    {
        type wall;
        faces
        (
            ( 0 4 7 3 )
            ( 2 6 5 1 )
            ( 1 5 4 0 )
            ( 3 7 6 2 )
        );
    }
);
      
mergePatchPairs
(
);


// ************************************************************************* //
