/*--------------------------------*- C++ -*----------------------------------*\
| =========                 |                                                 |
| \\      /  F ield         | OpenFOAM: The Open Source CFD Toolbox           |
|  \\    /   O peration     | Version:  v2206                                 |
|   \\  /    A nd           | Website:  www.openfoam.com                      |
|    \\/     M anipulation  |                                                 |
\*---------------------------------------------------------------------------*/
FoamFile
{
    version     2.0;
    format      ascii;
    class       dictionary;
    object      snappyHexMeshDict;
}
// * * * * * * * * * * * * * * * * * * * * * * * * * * * * * * * * * * * * * //

castellatedMesh true;
snap            false;
addLayers       true;


geometry
{
      body.stl
      {
              type triSurfaceMesh;
              name body; 
      }
};



castellatedMeshControls
{
    nCellsBetweenLevels           2;
    allowFreeStandingZoneFaces    true;
    maxGlobalCells 				2e8;
    maxLoadUnbalance              0.25;
    maxLocalCells 				1e8;
    minRefinementCells            1;
    planarAngle 				    30;
    resolveFeatureAngle 	        30;

    features
    (
    );
    refinementSurfaces
    {
        body
        {
            level (2 2);
        }
    }
    refinementRegions
    {
    }
    locationInMesh (26.67 26.67 16.002); 
}

snapControls
{
      explicitFeatureSnap     true;
      implicitFeatureSnap     false;
	    multiRegionFeatureSnap  false;
	    nFeatureSnapIter        10;
      nRelaxIter              5;
      nSmoothPatch            3;
      nSolveIter              100;
      tolerance               2.0;
}

// Settings for the layer addition.
addLayersControls
{
        relativeSizes             true;
        expansionRatio            1.2;
        featureAngle 130;
        finalLayerThickness       0.5;
        minThickness              0.1;
        nGrow                     0;
        maxFaceThicknessRatio       0.5;
        nSmoothSurfaceNormals 1;
        nSmoothThickness 10;
        maxThicknessToMedialRatio 0.3;
        minMedialAxisAngle 90;
        minMedianAxisAngle 90;
        nSmoothNormals 30;
        nLayerIter 50;
        nRelaxedIter 20;
        nRelaxIter 5;
        slipFeatureAngle 30;
        nBufferCellsNoExtrude         0;
        layers
        {
              body_Wall001
              {
                      nSurfaceLayers 3;
              }
      }
}

meshQualityControls
{
      #include "meshQualityDict"
      relaxed
      {
              maxNonOrtho 75;
      }
      nSmoothScale 4;
      errorReduction 0.75;
}
debug 0;
mergeTolerance 1e-6;
