/*--------------------------------*- C++ -*----------------------------------*\
| =========                 |                                                 |
| \\      /  F ield         | OpenFOAM: The Open Source CFD Toolbox           |
|  \\    /   O peration     | Version:  v2206                                 |
|   \\  /    A nd           | Website:  www.openfoam.com                      |
|    \\/     M anipulation  |                                                 |
\*---------------------------------------------------------------------------*/
FoamFile
{
    version     2.0;
    format      ascii;
    class       dictionary;
    object      snappyHexMeshDict;
}
// * * * * * * * * * * * * * * * * * * * * * * * * * * * * * * * * * * * * * //

castellatedMesh true;
snap            false;
addLayers       true;


geometry
{
      body.stl
      {
              type triSurfaceMesh;
              name body; 
      }
};



castellatedMeshControls
{
    nCellsBetweenLevels           2;
    allowFreeStandingZoneFaces    true;
    maxGlobalCells 				2e8;
    maxLoadUnbalance              0.10;
    maxLocalCells 				1e8;
    minRefinementCells            1;
    planarAngle 				    91;
    resolveFeatureAngle 	        91;

    features
    (
    );
    refinementSurfaces
    {
        body
        {
            level (5 5);
        }
    }
    refinementRegions
    {
    }
    locationInMesh (26.67 26.67 16.002); 
}

snapControls
{
      explicitFeatureSnap     true;
      implicitFeatureSnap     false;
	    multiRegionFeatureSnap  false;
	    nFeatureSnapIter        10;
      nRelaxIter              5;
      nSmoothPatch            3;
      nSolveIter              100;
      tolerance               2.0;
}

// Settings for the layer addition.
addLayersControls
{
        expansionRatio              1.2;
        featureAngle                250;	
        finalLayerThickness         2e-1;
        minThickness                1e-1;
        nGrow                       0;
        nSurfaceLayers 			2;
        relativeSizes 		        true;
        maxFaceThicknessRatio       0.5;
        nSmoothSurfaceNormals 		1;
        nSmoothThickness 			    10;
        maxThicknessToMedialRatio   0.3;
        minMedianAxisAngle          90;
        nSmoothNormals 				3;
        nLayerIter                    50;
        nRelaxedIter                  20;
        nRelaxIter                    5;
        slipFeatureAngle 			    30;
        nBufferCellsNoExtrude         0;
        additionalReporting         true;
        nBufferCellsNoExtrude       0;
        layers
        {
              body
              {
                      nSurfaceLayers 10;
              }
      }
}

meshQualityControls
{
      #include "meshQualityDict"
      relaxed
      {
              maxNonOrtho 75;
      }
      nSmoothScale 4;
      errorReduction 0.75;
}
debug 0;
mergeTolerance 1e-6;
