/*--------------------------------*- C++ -*----------------------------------*\
| =========                 |                                                 |
| \\      /  F ield         | OpenFOAM: The Open Source CFD Toolbox           |
|  \\    /   O peration     | Version:  2206                                  |
|   \\  /    A nd           | Website:  www.openfoam.com                      |
|    \\/     M anipulation  |                                                 |
\*---------------------------------------------------------------------------*/
FoamFile
{
    version     2.0;
    format      ascii;
    arch        "LSB;label=32;scalar=64";
    class       extendedFeatureEdgeMesh;
    location    "constant/extendedFeatureEdgeMesh";
    object      body.extendedFeatureEdgeMesh;
}
// * * * * * * * * * * * * * * * * * * * * * * * * * * * * * * * * * * * * * //

// points

12
(
(15.24 0 0)
(0 0 4.572)
(0 0 0)
(15.24 0 4.572)
(15.24 15.24 0)
(15.24 15.24 4.572)
(0 15.24 0)
(0 15.24 4.572)
(5.548 0 0.5)
(0.548 0 2.5)
(0.548 0 0.5)
(5.548 0 2.5)
)

// edges

16
(
(1 2)
(2 0)
(0 3)
(3 1)
(0 4)
(4 5)
(5 3)
(4 6)
(6 7)
(7 5)
(6 2)
(1 7)
(9 10)
(10 8)
(8 11)
(11 9)
)

// concaveStart mixedStart nonFeatureStart
8 8 12
// internalStart flatStart openStart multipleStart
12 12 12 16
// normals

14
(
(0 -1 0)
(-1 0 0)
(0 0 -1)
(0 -1 0)
(1 0 0)
(0 0 1)
(1 -0 0)
(0 1 0)
(0 0 1)
(0 0 -1)
(0 1 0)
(-1 0 0)
(0 -1 0)
(0 -1 0)
)

// normal volume types

14
(
0
0
0
0
0
0
0
0
0
0
0
0
0
0
)

// normalDirections

16
(
2(1 -1)
2(1 -1)
2(1 -1)
2(1 -1)
2(1 -1)
2(1 -1)
2(1 -1)
2(1 -1)
2(1 -1)
2(1 -1)
2(1 -1)
2(1 -1)
1(1)
1(1)
1(1)
1(1)
)

// edgeNormals

16
(
2(0 1)
2(0 2)
2(3 4)
2(3 5)
2(4 2)
2(6 7)
2(6 8)
2(7 9)
2(10 11)
2(10 8)
2(11 9)
2(1 5)
1(12)
1(12)
1(13)
1(13)
)

// featurePointNormals

12
(
3(0 2 4)
3(0 1 5)
3(0 1 2)
3(3 4 5)
3(4 2 7)
3(6 7 8)
3(7 9 11)
3(10 11 8)
1(12)
1(12)
1(12)
1(13)
)

// featurePointEdges

12
(
3(2 4 1)
3(3 11 0)
3(0 10 1)
3(2 6 3)
3(5 7 4)
3(5 9 6)
3(8 10 7)
3(8 11 9)
2(13 14)
2(12 15)
2(12 13)
2(14 15)
)

// regionEdges

16
(
0
1
2
3
4
5
6
7
8
9
10
11
12
13
14
15
)



// ************************************************************************* //
