/*--------------------------------*- C++ -*----------------------------------*\
| =========                 |                                                 |
| \\      /  F ield         | OpenFOAM: The Open Source CFD Toolbox           |
|  \\    /   O peration     | Version:  v2206                                 |
|   \\  /    A nd           | Website:  www.openfoam.com                      |
|    \\/     M anipulation  |                                                 |
\*---------------------------------------------------------------------------*/
FoamFile
{
    version     2.0;
    format      ascii;
    class       volScalarField;
    object      G;
}
// * * * * * * * * * * * * * * * * * * * * * * * * * * * * * * * * * * * * * //

 
dimensions      [1 0 -3 0 0 0 0];

internalField   uniform 0;

boundaryField
{
    floor
    {
        type            MarshakRadiation;
        value           uniform 0;
    }

    fixedWalls
    {
        type            MarshakRadiation;
        value           uniform 0;
    }

    ceiling
    {
        type            MarshakRadiation;
        value           uniform 0;
    }
    
    Flr001
    {
        type            MarshakRadiation;
        value           uniform 0;
    }
    Roof001
    {
        type            MarshakRadiation;
        value           uniform 0;
    }
    Wall001
    {
        type            MarshakRadiation;
        value           uniform 0;
    }
    Wall002
    {
        type            MarshakRadiation;
        value           uniform 0;
    }
    Wall003
    {
        type            MarshakRadiation;
        value           uniform 0;
    }
    Wall004
    {
        type            MarshakRadiation;
        value           uniform 0;
    }
    Win001
    {
        type            MarshakRadiation;
        value           uniform 0;
    }
}
          


// ************************************************************************* //
