/*--------------------------------*- C++ -*----------------------------------*\
| =========                 |                                                 |
| \\      /  F ield         | OpenFOAM: The Open Source CFD Toolbox           |
|  \\    /   O peration     | Version:  v2206                                 |
|   \\  /    A nd           | Website:  www.openfoam.com                      |
|    \\/     M anipulation  |                                                 |
\*---------------------------------------------------------------------------*/
FoamFile
{
    version     2.0;
    format      ascii;
    class       volScalarField;
    object      p;
}
// * * * * * * * * * * * * * * * * * * * * * * * * * * * * * * * * * * * * * //

 
dimensions      [1 -1 -2 0 0 0 0];

internalField   uniform 100000;

boundaryField
{
    floor
    {
        type            calculated;
        value           $internalField;
    }

    ceiling
    {
        type            calculated;
        value           $internalField;
    }

    fixedWalls
    {
        type            calculated;
        value           $internalField;
    }

    Flr001
    {
        type            calculated;
        value           $internalField;
    }
    Roof001
    {
        type            calculated;
        value           $internalField;
    }
    Wall001
    {
        type            calculated;
        value           $internalField;
    }
    Wall002
    {
        type            calculated;
        value           $internalField;
    }
    Wall003
    {
        type            calculated;
        value           $internalField;
    }
    Wall004
    {
        type            calculated;
        value           $internalField;
    }
    Win001
    {
        type            calculated;
        value           $internalField;
    }
}          
          


// ************************************************************************* //
