/*--------------------------------*- C++ -*----------------------------------*\
| =========                 |                                                 |
| \\      /  F ield         | OpenFOAM: The Open Source CFD Toolbox           |
|  \\    /   O peration     | Version:  v2206                                 |
|   \\  /    A nd           | Website:  www.openfoam.com                      |
|    \\/     M anipulation  |                                                 |
\*---------------------------------------------------------------------------*/
FoamFile
{
    version     2.0;
    format      ascii;
    class       volVectorField;
    object      U;
}
// * * * * * * * * * * * * * * * * * * * * * * * * * * * * * * * * * * * * * //

 
dimensions      [0 1 -1 0 0 0 0];

internalField   uniform (0 0 0);

boundaryField
{
    floor
    {
        type            noSlip;
    }

    ceiling
    {
        type            noSlip;
    }

    fixedWalls
    {
        type            noSlip;
    }

    Flr001
    {
        type            noSlip;
    }
    Roof001
    {
        type            noSlip;
    }
    Wall001
    {
        type            noSlip;
    }
    Wall002
    {
        type            noSlip;
    }
    Wall003
    {
        type            noSlip;
    }
    Wall004
    {
        type            noSlip;
    }
    Win001
    {
        type            noSlip;
    }
}
          


// ************************************************************************* //
